examples/PFNET_Archives/ver1718pid.raw
0,   100.00, 33, 0, 1, 50.00     / PSS(R)E-33.4    WED, MAY 15 2019  17:33
PICO HÁBIL DIURNO DEL VERANO 17/18 DEMANDA SADI 26100 MW

    10,'NPMADRYN    ', 500.0000,1,  21,   6,  10,1.01767,  14.1766,1.10000,0.90000,1.10000,0.90000
    11,'NPMD.CHL    ', 500.0000,1,  21,   6,  10,0.98198,  16.5847,1.10000,0.90000,1.10000,0.90000
    12,'SCN_500     ', 500.0000,1,  21,   6,  10,1.00298,  12.7410,1.10000,0.90000,1.10000,0.90000
    15,'RSCRUZ      ', 500.0000,1,  21,   6,  10,0.99649,  11.6763,1.10000,0.90000,1.10000,0.90000
    19,'ESPERANZ    ', 500.0000,1,  21,   6,  10,0.99339,  11.2392,1.10000,0.90000,1.10000,0.90000
    20,'GARACCB1    ', 525.0000,4,  20,  49,  10,1.00000,   0.0000,1.10000,0.90000,1.10000,0.90000
    22,'GARACCB2    ', 525.0000,4,  20,  49,  10,1.00000,   0.0000,1.10000,0.90000,1.10000,0.90000
    30,'ITA         ', 525.0000,4,  20,  49,  10,1.00000,   0.0000,1.10000,0.90000,1.10000,0.90000
   100,'FUTAL330    ', 330.0000,1,  21,  59,  10,1.10874,  30.5356,1.10000,0.90000,1.10000,0.90000
   102,'FUTAHI01    ',  13.8000,2,  21,  59,   6,1.00000,  36.7792,1.10000,0.90000,1.10000,0.90000
   104,'FUTAHI02    ',  13.8000,2,  21,  59,   6,1.00000,  36.7792,1.10000,0.90000,1.10000,0.90000
   106,'FUTAHI03    ',  13.8000,4,  21,  59,   6,1.00000,   0.0000,1.10000,0.90000,1.10000,0.90000
   108,'FUTAHI04    ',  13.8000,2,  21,  59,   6,1.00000,  36.7792,1.10000,0.90000,1.10000,0.90000
   110,'FUTA33-2    ',  33.0000,4,  21,  59,  10,1.00000,   0.0000,1.10000,0.90000,1.10000,0.90000
   112,'FUTA33-1    ',  33.0000,1,  21,  59,  10,1.04545,  36.7792,1.10000,0.90000,1.10000,0.90000
   115,'R.TURBIO    ', 220.0000,1,  21,  53,   1,1.02742,   9.4764,1.10000,0.90000,1.10000,0.90000
   117,'ESPERANZ    ', 220.0000,1,  21,   6,   1,1.02013,  10.0603,1.10000,0.90000,1.10000,0.90000
   118,'RGALLEGO    ', 220.0000,1,  21,  53,   1,1.01786,   8.9949,1.10000,0.90000,1.10000,0.90000
   190,'ALTG09CC    ',  10.5000,2,  21,  58,   8,0.99373,  23.4393,1.10000,0.90000,1.10000,0.90000
   191,'ALTG10CC    ',  10.5000,2,  21,  58,   8,0.99373,  23.4393,1.10000,0.90000,1.10000,0.90000
   192,'ALTV11CC    ',  10.5000,2,  21,  58,   8,0.99572,  22.3601,1.10000,0.90000,1.10000,0.90000
   193,'SERIE DT    ', 132.0000,1,  21,  58,   2,1.00000,  16.8400,1.10000,0.90000,1.10000,0.90000
   200,'PMADR330    ', 330.0000,1,  21,  51,   1,1.00276,  17.6270,1.10000,0.90000,1.10000,0.90000
   201,'AL-FIAT1    ',  13.2000,4,  21,  58,   4,1.00000,   0.0000,1.10000,0.90000,1.10000,0.90000
   202,'AL-FIAT2    ',  13.2000,4,  21,  58,   4,1.00000,   0.0000,1.10000,0.90000,1.10000,0.90000
   203,'AL-FIAT3    ',  13.2000,4,  21,  58,   4,1.00000,   0.0000,1.10000,0.90000,1.10000,0.90000
   204,'AL-FIAT4    ',  13.2000,4,  21,  58,   4,1.00000,   0.0000,1.10000,0.90000,1.10000,0.90000
   205,'AL-FRAM5    ',  11.0000,4,  21,  58,   4,1.00000,   0.0000,1.10000,0.90000,1.10000,0.90000
   206,'AL-FRAM6    ',  11.0000,4,  21,  58,   4,1.00000,   0.0000,1.10000,0.90000,1.10000,0.90000
   207,'ALCC-TG7    ',  11.0000,2,  21,  58,   8,1.01154,  19.5771,1.10000,0.90000,1.10000,0.90000
   208,'ALCC-TG8    ',  11.0000,2,  21,  58,   8,1.01154,  19.5771,1.10000,0.90000,1.10000,0.90000
   209,'ALCC-TV1    ',  11.0000,2,  21,  58,   8,1.01263,  18.7850,1.10000,0.90000,1.10000,0.90000
   210,'APPA330A    ', 330.0000,1,  21,  58,   2,1.00168,  17.5973,1.10000,0.90000,1.10000,0.90000
   211,'APPA330B    ', 330.0000,1,  21,  58,   2,1.00165,  17.6024,1.10000,0.90000,1.10000,0.90000
   212,'AL-CE0A2    ',  33.0000,1,  21,  58,   2,1.00000,  14.5988,1.10000,0.90000,1.10000,0.90000
   213,'APPA330C    ', 330.0000,1,  21,  58,   2,1.00166,  17.6024,1.10000,0.90000,1.10000,0.90000
   214,'AL-CE0B     ',  33.0000,4,  21,  58,   2,1.00000,   0.0000,1.10000,0.90000,1.10000,0.90000
   216,'AL-CE0A4    ',  33.0000,1,  21,  58,   2,1.00000,  14.5988,1.10000,0.90000,1.10000,0.90000
   217,'AL-CE0A5    ',  33.0000,1,  21,  58,   2,1.00000,  14.5988,1.10000,0.90000,1.10000,0.90000
   218,'AL-CE0A3    ',  33.0000,1,  21,  58,   2,1.00000,  14.5988,1.10000,0.90000,1.10000,0.90000
   219,'AEG         ',  13.2000,2,  21,  58,   4,1.00000,  14.5988,1.10000,0.90000,1.10000,0.90000
   220,'PMADRYN1    ', 132.0000,1,  21,  51,   1,1.04212,  18.3226,1.10000,0.90000,1.10000,0.90000
   221,'PMADRYN2    ', 132.0000,4,  21,  51,   1,1.00000,   0.0000,1.10000,0.90000,1.10000,0.90000
   222,'AL-CE0A1    ',  33.0000,1,  21,  58,   2,1.02447,  16.9236,1.10000,0.90000,1.10000,0.90000
   223,'PELB_1_3    ', 132.0000,4,  21,  51,   1,1.00000,   0.0000,1.10000,0.90000,1.10000,0.90000
   224,'NPMAD330    ', 330.0000,1,  21,  51,  10,1.00284,  17.6077,1.10000,0.90000,1.10000,0.90000
   225,'PELB_2_4    ', 132.0000,4,  21,  51,   1,1.00000,   0.0000,1.10000,0.90000,1.10000,0.90000
   226,'PELB_6      ', 132.0000,4,  21,  51,   1,1.00000,   0.0000,1.10000,0.90000,1.10000,0.90000
   227,'SERV AUX    ',  33.0000,1,  21,  58,   2,1.00000,  14.5988,1.10000,0.90000,1.10000,0.90000
   230,'DGPAL132    ', 132.0000,1,  21,  51,  10,1.03561,  18.5194,1.10000,0.90000,1.10000,0.90000
   231,'PM-GEN      ',  33.0000,1,  21,  51,  10,1.01913,  16.3913,1.10000,0.90000,1.10000,0.90000
   232,'DGPALU33    ',  33.0000,2,  21,  51,   1,1.01913,  16.3913,1.10000,0.90000,1.10000,0.90000
   234,'PM-GEN      ',  13.2000,2,  21,  51,   4,0.99915,  16.3913,1.10000,0.90000,1.10000,0.90000
   235,'DGPA13-1    ',  13.2000,1,  21,  51,  10,1.01723,  16.2163,1.10000,0.90000,1.10000,0.90000
   237,'DGPA13-2    ',  13.2000,1,  21,  51,  10,1.01723,  16.2163,1.10000,0.90000,1.10000,0.90000
   240,'TRELW132    ', 132.0000,1,  21,  51,  10,1.00054,  22.9316,1.10000,0.90000,1.10000,0.90000
   242,'TREW13.2    ',  13.2000,2,  21,  51,   1,1.00358,  18.5987,1.10000,0.90000,1.10000,0.90000
   243,'RAWSON      ', 132.0000,1,  21,  51,   1,1.00409,  24.6176,1.10000,0.90000,1.10000,0.90000
   244,'TRELEW33    ',  33.0000,1,  21,  51,   1,1.01476,  19.5197,1.10000,0.90000,1.10000,0.90000
   246,'PE_PMADR    ', 132.0000,4,  21,  51,  10,1.00000,   0.0000,1.10000,0.90000,1.10000,0.90000
   250,'AMEGH132    ', 132.0000,1,  21,  51,   1,1.03276,  23.4943,1.10000,0.90000,1.10000,0.90000
   251,'AMEGHI01    ',  13.2000,2,  21,  51,   6,1.04000,  25.7353,1.10000,0.90000,1.10000,0.90000
   252,'AMEGHI02    ',  13.2000,4,  21,  51,   6,1.00000,   0.0000,1.10000,0.90000,1.10000,0.90000
   253,'PE_ALUAR    ', 132.0000,1,  21,  58,  11,1.00169,  17.4850,1.10000,0.90000,1.10000,0.90000
   254,'ALUA33_1    ',  33.0000,1,  21,  58,  11,0.99475,  23.1667,1.10000,0.90000,1.10000,0.90000
   255,'ALUA33_2    ',  33.0000,4,  21,  58,  11,1.00000,   0.0000,1.10000,0.90000,1.10000,0.90000
   256,'ALUA33_3    ',  33.0000,1,  21,  58,  11,1.00019,  23.4505,1.10000,0.90000,1.10000,0.90000
   257,'ALUA33_4    ',  33.0000,4,  21,  58,  11,1.00000,   0.0000,1.10000,0.90000,1.10000,0.90000
   258,'PER-132     ', 132.0000,1,  21,  51,   1,1.00669,  25.5043,1.10000,0.90000,1.10000,0.90000
   259,'AL-CEB      ', 132.0000,1,  21,  58,   2,1.00000,  16.8400,1.10000,0.90000,1.10000,0.90000
   260,'TR2 FICT    ',   1.0000,1,  21,  58,   2,0.98035,  16.9236,1.10000,0.90000,1.10000,0.90000
   261,'AL-CEA      ', 132.0000,1,  21,  58,   2,1.00000,  16.8400,1.10000,0.90000,1.10000,0.90000
   262,'TR1 FICT    ',   1.0000,1,  21,  58,   2,0.98119,  16.8184,1.10000,0.90000,1.10000,0.90000
   263,'TR3 FICT    ',   1.0000,1,  21,  58,   2,0.98036,  16.9236,1.10000,0.90000,1.10000,0.90000
   264,'FUTAL132    ', 132.0000,1,  21,  59,  10,1.03588,  27.8847,1.10000,0.90000,1.10000,0.90000
   265,'AL-CEB0C    ',  33.0000,1,  21,  58,   2,1.02447,  16.9236,1.10000,0.90000,1.10000,0.90000
   266,'ESQUE132    ', 132.0000,1,  21,  59,  10,1.03024,  27.3522,1.10000,0.90000,1.10000,0.90000
   268,'SERIE AT    ', 132.0000,1,  21,  58,   2,1.00000,  16.8400,1.10000,0.90000,1.10000,0.90000
   269,'SERIE BT    ', 132.0000,1,  21,  58,   2,1.00000,  16.8400,1.10000,0.90000,1.10000,0.90000
   271,'ELCOIHUE    ', 132.0000,1,  21,  59,   1,1.01582,  26.2924,1.10000,0.90000,1.10000,0.90000
   275,'LB_EOL      ', 132.0000,1,  21,  51,   1,1.04673,  20.8328,1.10000,0.90000,1.10000,0.90000
   280,'GOLONDRI    ',  13.2000,1,  21,  59,  10,0.98443,  19.3315,1.10000,0.90000,1.10000,0.90000
   281,'LIMRN-CH    ',  13.2000,1,  21,  59,  10,0.91348,  19.1572,1.10000,0.90000,1.10000,0.90000
   282,'ELBOLSON    ',  13.2000,1,  21,  59,   1,0.86058,  19.0085,1.10000,0.90000,1.10000,0.90000
   300,'SGRAN132    ', 132.0000,1,  21,  51,   1,1.01440,  14.2085,1.10000,0.90000,1.10000,0.90000
   304,'SGRA13.2    ',  13.2000,4,  21,  51,   4,1.00000,   0.0000,1.10000,0.90000,1.10000,0.90000
   310,'PCOLO132    ', 132.0000,1,  21,  51,  10,1.01228,  14.0284,1.10000,0.90000,1.10000,0.90000
   315,'RSCRUZ      ', 132.0000,1,  21,  53,   1,1.02285,  11.4136,1.10000,0.90000,1.10000,0.90000
   316,'S.JULIAN    ', 132.0000,4,  21,  53,   1,1.00000,   0.0000,1.10000,0.90000,1.10000,0.90000
   317,'M.ESPEJO    ', 132.0000,4,  21,  53,   1,1.00000,   0.0000,1.10000,0.90000,1.10000,0.90000
   318,'GREGORES    ', 132.0000,4,  21,  53,   1,1.00000,   0.0000,1.10000,0.90000,1.10000,0.90000
   320,'SANOE132    ', 132.0000,1,  21,  51,   1,0.98664,  11.5421,1.10000,0.90000,1.10000,0.90000
   322,'SANES132    ', 132.0000,1,  21,  51,   1,0.98234,  11.2468,1.10000,0.90000,1.10000,0.90000
   330,'VIEDM132    ', 132.0000,1,  21,  51,   1,0.87917, -14.2865,1.10000,0.90000,1.10000,0.90000
   332,'VIED13.2    ',  13.2000,1,  21,  51,   1,0.99478, -18.7481,1.10000,0.90000,1.10000,0.90000
   334,'VIEDMA33    ',  33.0000,1,  21,  51,  10,1.00041, -17.1799,1.10000,0.90000,1.10000,0.90000
   340,'ALPAT       ', 132.0000,1,  21,  51,   1,0.98675,  11.5389,1.10000,0.90000,1.10000,0.90000
   342,'ALPAT       ',  10.5000,2,  21,  51,   1,0.98675,  11.5389,1.10000,0.90000,1.10000,0.90000
   344,'ALPAT       ',   6.6000,2,  21,  51,   1,0.98675,  11.5389,1.10000,0.90000,1.10000,0.90000
   400,'C.RIV.A1    ', 132.0000,1,  21,  52,  10,1.00904,  21.4674,1.10000,0.90000,1.10000,0.90000
   401,'C.RIV.A     ', 132.0000,1,  21,  52,  10,1.00894,  21.4603,1.10000,0.90000,1.10000,0.90000
   402,'3GAL        ', 132.0000,1,  21,  51,  10,1.03772,  22.7827,1.10000,0.90000,1.10000,0.90000
   403,'HERCULES    ', 132.0000,1,  21,  52,  10,1.01307,  12.6803,1.10000,0.90000,1.10000,0.90000
   404,'ESCALANT    ', 132.0000,1,  21,  52,  10,1.00799,  23.4259,1.10000,0.90000,1.10000,0.90000
   405,'PE_MBEHR    ', 132.0000,1,  21,  52,  10,1.01003,  25.1388,1.10000,0.90000,1.10000,0.90000
   406,'CRI22-26    ',  13.2000,2,  21,  52,   4,1.00894,  21.4603,1.10000,0.90000,1.10000,0.90000
   407,'3GAL_33     ',  33.0000,4,  21,  51,  10,1.00000,   0.0000,1.10000,0.90000,1.10000,0.90000
   408,'C.RIV.A1    ',  10.4000,1,  21,  52,   1,0.97658,  18.0654,1.10000,0.90000,1.10000,0.90000
   409,'CRI 21      ',  10.4000,2,  21,  52,   4,0.97658,  18.0654,1.10000,0.90000,1.10000,0.90000
   410,'C.RIV.A1    ',  66.0000,2,  21,  52,   1,1.00130,  20.4490,1.10000,0.90000,1.10000,0.90000
   411,'BICE13_1    ',  13.2000,4,  21,  51,  10,1.00000,   0.0000,1.10000,0.90000,1.10000,0.90000
   412,'BICE13_2    ',  13.2000,4,  21,  51,  10,1.00000,   0.0000,1.10000,0.90000,1.10000,0.90000
   413,'BICE33_1    ',  33.0000,4,  21,  51,  10,1.00000,   0.0000,1.10000,0.90000,1.10000,0.90000
   414,'BICE33_2    ',  33.0000,4,  21,  51,  10,1.00000,   0.0000,1.10000,0.90000,1.10000,0.90000
   420,'C.RIV.A1    ',  33.0000,2,  21,  52,   1,1.02202,  18.5600,1.10000,0.90000,1.10000,0.90000
   422,'CRI 23      ',  13.8000,2,  21,  52,   4,0.97603,  17.9158,1.10000,0.90000,1.10000,0.90000
   437,'CRI27-28    ',  13.8000,2,  21,  52,   8,1.00894,  21.4603,1.10000,0.90000,1.10000,0.90000
   438,'CRIVTV25    ',  13.8000,2,  21,  52,   8,1.00894,  21.4603,1.10000,0.90000,1.10000,0.90000
   440,'VHERM132    ', 132.0000,2,  21,  52,   1,0.99004,  22.2738,1.10000,0.90000,1.10000,0.90000
   441,'SAN JOSE    ', 132.0000,1,  21,  52,   1,0.96883,  10.6523,1.10000,0.90000,1.10000,0.90000
   442,'CNEGR132    ', 132.0000,2,  21,  52,   1,0.98295,  21.9605,1.10000,0.90000,1.10000,0.90000
   444,'PAMCA132    ', 132.0000,2,  21,  52,   1,0.99770,  22.7018,1.10000,0.90000,1.10000,0.90000
   445,'TORDI132    ', 132.0000,2,  21,  52,   1,0.99605,  22.6390,1.10000,0.90000,1.10000,0.90000
   446,'LPER1132    ', 132.0000,1,  21,  52,   1,1.02742,  15.9035,1.10000,0.90000,1.10000,0.90000
   447,'LPER2132    ', 132.0000,4,  21,  52,   1,1.00000,   0.0000,1.10000,0.90000,1.10000,0.90000
   448,'LASHE132    ', 132.0000,2,  21,  52,   1,0.99575,  12.7451,1.10000,0.90000,1.10000,0.90000
   449,'DIADEMA     ', 132.0000,1,  21,  52,   1,1.01090,  23.0582,1.10000,0.90000,1.10000,0.90000
   450,'BSM132R     ', 132.0000,2,  21,  52,   1,1.01409,  21.9085,1.10000,0.90000,1.10000,0.90000
   451,'DIADEMA     ',  34.5000,1,  21,  52,   1,1.01699,  23.5910,1.10000,0.90000,1.10000,0.90000
   452,'BSMA13.2    ',  13.2000,1,  21,  52,   1,0.99212,  15.4816,1.10000,0.90000,1.10000,0.90000
   453,'DIADEMA     ',   0.4000,2,  21,  52,  11,1.03000,  24.7628,1.10000,0.90000,1.10000,0.90000
   454,'BSMART33    ',  33.0000,1,  21,  52,   1,1.01161,  17.5479,1.10000,0.90000,1.10000,0.90000
   455,'AIKE        ', 132.0000,1,  21,  52,   1,0.97469,  11.2535,1.10000,0.90000,1.10000,0.90000
   456,'ABASOLO     ', 132.0000,1,  21,  52,   1,1.01556,  22.3066,1.10000,0.90000,1.10000,0.90000
   457,'OROPLATA    ', 132.0000,1,  21,  52,   1,0.95448,  10.0613,1.10000,0.90000,1.10000,0.90000
   459,'PT1-132R    ', 132.0000,2,  21,  52,   1,1.02494,  12.6697,1.10000,0.90000,1.10000,0.90000
   460,'PT1-132M    ', 132.0000,1,  21,  52,   1,1.02494,  12.6697,1.10000,0.90000,1.10000,0.90000
   461,'SCN_132     ', 132.0000,1,  21,  52,  10,1.02557,  12.6558,1.10000,0.90000,1.10000,0.90000
   462,'PTRUN235    ',  35.0000,1,  21,  52,   1,1.01076,  12.1563,1.10000,0.90000,1.10000,0.90000
   463,'PTRUN35R    ',  35.0000,2,  21,  52,   1,1.01076,  12.1563,1.10000,0.90000,1.10000,0.90000
   464,'PTRUTG24    ',  13.8000,2,  21,  52,   4,0.97177,  12.1423,1.10000,0.90000,1.10000,0.90000
   466,'PTRUTG25    ',  10.5000,2,  21,  52,   4,0.97169,  12.1321,1.10000,0.90000,1.10000,0.90000
   467,'PCR         ', 132.0000,1,  21,  52,   1,1.02499,  12.6445,1.10000,0.90000,1.10000,0.90000
   468,'PTRUTG23    ',  10.5000,2,  21,  52,   4,1.01076,  12.1563,1.10000,0.90000,1.10000,0.90000
   470,'PT2--132    ', 132.0000,1,  21,  52,  10,1.02463,  12.6472,1.10000,0.90000,1.10000,0.90000
   472,'PT2-6.9     ',  35.0000,1,  21,  52,   1,1.01883,  11.9803,1.10000,0.90000,1.10000,0.90000
   474,'ELCORDON    ',  35.0000,4,  21,  52,   1,1.00000,   0.0000,1.10000,0.90000,1.10000,0.90000
   475,'HUEMUL      ',  35.0000,4,  21,  52,   1,1.00000,   0.0000,1.10000,0.90000,1.10000,0.90000
   476,'CT.HUEMUL   ',   0.4000,4,  21,  52,   1,1.00000,   0.0000,1.10000,0.90000,1.10000,0.90000
   477,'MESESPI     ',  35.0000,4,  21,  52,   1,1.00000,   0.0000,1.10000,0.90000,1.10000,0.90000
   478,'CTMESESP    ',   0.4000,4,  21,  52,   4,1.00000,   0.0000,1.10000,0.90000,1.10000,0.90000
   479,'SCN_TER1    ',  33.0000,1,  21,   6,  10,1.02912,  12.6634,1.10000,0.90000,1.10000,0.90000
   480,'PDES132M    ', 132.0000,1,  21,  52,   1,1.03126,  11.2982,1.10000,0.90000,1.10000,0.90000
   481,'PDES132R    ', 132.0000,4,  21,  52,   1,1.00000,   0.0000,1.10000,0.90000,1.10000,0.90000
   482,'C.MORO      ', 132.0000,4,  21,  52,   1,1.00000,   0.0000,1.10000,0.90000,1.10000,0.90000
   483,'PS.A.BIEDMA ', 132.0000,1,  21,  52,   1,1.03401,  11.5238,1.10000,0.90000,1.10000,0.90000
   484,'SCN_TER2    ',  33.0000,4,  21,   6,  10,1.00000,   0.0000,1.10000,0.90000,1.10000,0.90000
   490,'CTPAT132    ', 132.0000,1,  21,  52,  10,1.01552,  22.3073,1.10000,0.90000,1.10000,0.90000
   491,'CTPATG01    ',  11.5000,2,  21,  52,   8,1.03000,  26.0007,1.10000,0.90000,1.10000,0.90000
   492,'CTPATG02    ',  11.5000,2,  21,  52,   8,1.03000,  26.0007,1.10000,0.90000,1.10000,0.90000
   493,'CTPATV01    ',  11.5000,2,  21,  52,   8,1.03000,  24.6796,1.10000,0.90000,1.10000,0.90000
   494,'CHUBUNOR    ', 132.0000,2,  21,  51,   1,1.04227,  18.3187,1.10000,0.90000,1.10000,0.90000
   495,'PEBICENT    ', 132.0000,1,  21,  52,   1,1.03390,  11.8569,1.10000,0.90000,1.10000,0.90000
   500,'HERC33_1    ',  33.0000,4,  21,   6,  11,1.00000,   0.0000,1.10000,0.90000,1.10000,0.90000
   501,'PMD.TER1    ',  33.0000,1,  21,   6,  10,1.00050,  17.9654,1.10000,0.90000,1.10000,0.90000
   502,'HERC33_2    ',  33.0000,4,  21,   6,  11,1.00000,   0.0000,1.10000,0.90000,1.10000,0.90000
   503,'HERC13_1    ',  13.2000,4,  21,   6,   1,1.00000,   0.0000,1.10000,0.90000,1.10000,0.90000
   504,'RSCRUZ      ',  33.0000,1,  21,   6,   1,1.02274,  11.3856,1.10000,0.90000,1.10000,0.90000
   505,'HERC13_2    ',  13.2000,4,  21,   6,   1,1.00000,   0.0000,1.10000,0.90000,1.10000,0.90000
   509,'PMD4.TER    ',  33.0000,4,  21,   6,  10,1.00000,   0.0000,1.10000,0.90000,1.10000,0.90000
   510,'PMD1.TER    ',  34.5000,1,  21,  51,  10,1.04563,  18.2212,1.10000,0.90000,1.10000,0.90000
   511,'PMD2.TER    ',  34.5000,1,  21,  51,  10,1.04519,  18.2339,1.10000,0.90000,1.10000,0.90000
   514,'CRITER10    ',  13.8000,1,  21,  52,  10,0.99850,  20.2847,1.10000,0.90000,1.10000,0.90000
   515,'CRITER11    ',  13.8000,1,  21,  52,  10,1.00050,  20.3401,1.10000,0.90000,1.10000,0.90000
   516,'ESQ1.TER    ',  13.8000,1,  21,  59,  10,0.99839,  23.7317,1.10000,0.90000,1.10000,0.90000
   518,'FUT1.TER    ',  34.5000,1,  21,  59,  10,1.03530,  27.5883,1.10000,0.90000,1.10000,0.90000
   520,'ESQUEL33    ',  33.0000,1,  21,  59,   1,1.04475,  23.8497,1.10000,0.90000,1.10000,0.90000
   522,'ELCOIHUE    ',  33.0000,1,  21,  59,   1,0.98614,  23.1720,1.10000,0.90000,1.10000,0.90000
   523,'RTURTV1     ',  11.0000,4,  21,  53,   5,1.00000,   0.0000,1.10000,0.90000,1.10000,0.90000
   524,'GOLONDRI    ',  33.0000,1,  21,  59,   1,0.95288,  21.4310,1.10000,0.90000,1.10000,0.90000
   525,'RTURTV2     ',  11.0000,4,  21,  53,   5,1.00000,   0.0000,1.10000,0.90000,1.10000,0.90000
   526,'CHNO33_1    ',  33.0000,4,  21,  51,  10,1.00000,   0.0000,1.10000,0.90000,1.10000,0.90000
   532,'PEM33_01    ',  33.0000,4,  21,  51,  11,1.00000,   0.0000,1.10000,0.90000,1.10000,0.90000
   533,'PEM33_02    ',  33.0000,4,  21,  51,  11,1.00000,   0.0000,1.10000,0.90000,1.10000,0.90000
   534,'PEM33_03    ',  33.0000,4,  21,  51,  11,1.00000,   0.0000,1.10000,0.90000,1.10000,0.90000
   535,'PEM33_04    ',  33.0000,4,  21,  51,  11,1.00000,   0.0000,1.10000,0.90000,1.10000,0.90000
   536,'PEM33_05    ',  33.0000,4,  21,  51,  11,1.00000,   0.0000,1.10000,0.90000,1.10000,0.90000
   537,'PEM33_06    ',  33.0000,4,  21,  51,  11,1.00000,   0.0000,1.10000,0.90000,1.10000,0.90000
   538,'PEM33_07    ',  33.0000,4,  21,  51,  11,1.00000,   0.0000,1.10000,0.90000,1.10000,0.90000
   539,'PEM33_08    ',  33.0000,4,  21,  51,  11,1.00000,   0.0000,1.10000,0.90000,1.10000,0.90000
   540,'PEM33_09    ',  33.0000,4,  21,  51,  11,1.00000,   0.0000,1.10000,0.90000,1.10000,0.90000
   541,'PEM33_10    ',  33.0000,4,  21,  51,  11,1.00000,   0.0000,1.10000,0.90000,1.10000,0.90000
   542,'PMD3.TER    ',  33.0000,4,  21,  51,  11,1.00000,   0.0000,1.10000,0.90000,1.10000,0.90000
   545,'ESP.TER1    ',  33.0000,1,  21,   6,   1,1.00850,   9.9650,1.10000,0.90000,1.10000,0.90000
   546,'ESP.TER2    ',  33.0000,1,  21,   6,   1,1.07217,   9.3837,1.10000,0.90000,1.10000,0.90000
   547,'RGALLEGO    ',  33.0000,4,  21,  53,   1,1.00000,   0.0000,1.10000,0.90000,1.10000,0.90000
   548,'RGA.TER1    ',  13.2000,4,  21,  53,   1,1.00000,   0.0000,1.10000,0.90000,1.10000,0.90000
   556,'LB_EOL_04   ',  33.0000,1,  21,  51,   1,1.03748,  26.0953,1.10000,0.90000,1.10000,0.90000
   557,'LB_EOL_04   ',  33.0000,1,  21,  51,   1,1.04116,  26.6222,1.10000,0.90000,1.10000,0.90000
   560,'PELB33_1    ',  33.0000,4,  21,  51,  11,1.00000,   0.0000,1.10000,0.90000,1.10000,0.90000
...
0 / END OF BUS DATA, BEGIN LOAD DATA
   115,'1 ',1,  21,  53,    11.448,     4.000,     0.000,     0.000,     0.000,     0.000,   1,1,0
   118,'1 ',1,  21,  53,    25.663,    11.100,     0.000,     0.000,     0.000,     0.000,   1,1,0
   193,'1 ',1,  21,  58,   183.000,   103.700,     0.000,     0.000,     0.000,     0.000,   2,1,0
   214,'1 ',1,  21,  58,    72.000,    40.800,     0.000,     0.000,     0.000,     0.000,   2,1,0
   217,'1 ',1,  21,  58,   130.000,    73.700,     0.000,     0.000,     0.000,     0.000,   2,1,0
   222,'1 ',0,  21,  58,    72.000,    40.800,     0.000,     0.000,     0.000,     0.000,   2,1,0
   227,'1 ',1,  21,  58,    26.000,    12.600,     0.000,     0.000,     0.000,     0.000,   3,1,0
   232,'1 ',1,  21,  51,    28.620,    17.500,     0.000,     0.000,     0.000,     0.000,   1,1,0
   232,'2 ',0,  21,  51,     8.641,     4.061,     0.000,     0.000,     0.000,     0.000,   1,1,0
   232,'3 ',0,  21,  51,     2.887,     1.610,     0.000,     0.000,     0.000,     0.000,   1,1,0
   242,'1 ',0,  21,  51,     5.458,     2.797,     0.000,     0.000,     0.000,     0.000,   1,1,0
   242,'2 ',0,  21,  51,    12.621,     5.964,     0.000,     0.000,     0.000,     0.000,   1,1,0
   242,'3 ',1,  21,  51,    14.568,     9.663,     0.000,     0.000,     0.000,     0.000,   1,1,0
   243,'1 ',1,  21,  51,    14.310,     7.000,     0.000,     0.000,     0.000,     0.000,   1,1,0
   244,'1 ',1,  21,  51,    28.361,    18.810,     0.000,     0.000,     0.000,     0.000,   1,1,0
   250,'1 ',1,  21,  51,     0.954,     0.459,     0.000,     0.000,     0.000,     0.000,   1,1,0
   250,'2 ',0,  21,  51,     0.000,     0.000,     0.000,     0.000,     0.000,     0.000,   1,1,0
   259,'1 ',1,  21,  58,    20.000,    11.000,     0.000,     0.000,     0.000,     0.000,   3,1,0
   265,'1 ',0,  21,  58,    72.000,    40.800,     0.000,     0.000,     0.000,     0.000,   2,1,0
   268,'1 ',1,  21,  58,   172.000,    97.500,     0.000,     0.000,     0.000,     0.000,   2,1,0
   269,'1 ',1,  21,  58,   172.000,    97.500,     0.000,     0.000,     0.000,     0.000,   2,1,0
   282,'1 ',1,  21,  52,     1.981,     0.953,     0.000,     0.000,     0.000,     0.000,   1,1,0
   300,'1 ',1,  21,  26,     3.816,     1.809,     0.000,     0.000,     0.000,     0.000,   1,1,0
   310,'1 ',1,  21,  26,     5.000,     1.500,     0.000,     0.000,     0.000,     0.000,   2,1,0
   315,'1 ',1,  21,  53,     0.954,     0.300,     0.000,     0.000,     0.000,     0.000,   1,1,0
   315,'2 ',1,  21,  53,     2.770,     0.501,     0.000,     0.000,     0.000,     0.000,   1,1,0
   316,'1 ',0,  21,  53,     4.833,     1.450,     0.000,     0.000,     0.000,     0.000,   1,1,0
   317,'1 ',0,  21,  53,    10.000,     3.000,     0.000,     0.000,     0.000,     0.000,   2,1,0
   318,'1 ',0,  21,  53,     1.878,     0.564,     0.000,     0.000,     0.000,     0.000,   1,1,0
   320,'1 ',1,  21,  26,     9.063,     4.000,     0.000,     0.000,     0.000,     0.000,   1,1,0
   322,'1 ',1,  21,  26,    10.971,     5.791,     0.000,     0.000,     0.000,     0.000,   1,1,0
   332,'1 ',1,  21,  26,    18.603,     6.500,     0.000,     0.000,     0.000,     0.000,   1,1,0
   344,'1 ',0,  21,  26,    12.000,     4.000,     0.000,     0.000,     0.000,     0.000,   2,1,0
   405,'1 ',1,  21,  52,    35.000,    11.500,     0.000,     0.000,     0.000,     0.000,  10,1,0
   408,'1 ',0,  21,  52,     0.000,     0.000,     0.000,     0.000,     0.000,     0.000,   1,1,0
   409,'1 ',1,  21,  52,    12.216,     5.463,     0.000,     0.000,     0.000,     0.000,   1,1,0
   409,'2 ',1,  21,  52,     7.330,     3.159,     0.000,     0.000,     0.000,     0.000,   1,1,0
   409,'3 ',0,  21,  52,     2.207,     0.617,     0.000,     0.000,     0.000,     0.000,   1,1,0
   410,'1 ',1,  21,  52,    11.238,     8.366,     0.000,     0.000,     0.000,     0.000,   1,1,0
   410,'2 ',0,  21,  52,    14.099,     6.455,     0.000,     0.000,     0.000,     0.000,   1,1,0
   410,'3 ',0,  21,  52,     0.134,     0.551,     0.000,     0.000,     0.000,     0.000,   1,1,0
   420,'1 ',1,  21,  52,    27.689,    15.109,     0.000,     0.000,     0.000,     0.000,   1,1,0
   420,'2 ',0,  21,  52,    38.658,    17.930,     0.000,     0.000,     0.000,     0.000,   1,1,0
   420,'3 ',0,  21,  52,     4.900,     2.000,     0.000,     0.000,     0.000,     0.000,   1,1,0
   422,'1 ',1,  21,  52,     8.306,     0.256,     0.000,     0.000,     0.000,     0.000,   1,1,0
   440,'1 ',1,  21,  52,     4.388,     2.800,     0.000,     0.000,     0.000,     0.000,   1,1,0
   440,'2 ',0,  21,  52,    12.500,     4.000,     0.000,     0.000,     0.000,     0.000,   1,1,0
   440,'3 ',0,  21,  52,    14.988,     4.265,     0.000,     0.000,     0.000,     0.000,   1,1,0
   441,'1 ',1,  21,  52,     5.724,     2.143,     0.000,     0.000,     0.000,     0.000,   1,1,0
   442,'1 ',1,  21,  52,     7.346,     6.000,     0.000,     0.000,     0.000,     0.000,   1,1,0
   442,'2 ',0,  21,  52,     5.571,     2.551,     0.000,     0.000,     0.000,     0.000,   1,1,0
   442,'3 ',0,  21,  52,     2.500,     1.428,     0.000,     0.000,     0.000,     0.000,   1,1,0
   444,'1 ',1,  21,  52,    12.879,     4.000,     0.000,     0.000,     0.000,     0.000,   1,1,0
   444,'2 ',0,  21,  52,    12.166,     5.570,     0.000,     0.000,     0.000,     0.000,   1,1,0
   444,'3 ',0,  21,  52,     3.500,     0.658,     0.000,     0.000,     0.000,     0.000,   1,1,0
   445,'1 ',1,  21,  52,     7.155,     3.434,     0.000,     0.000,     0.000,     0.000,   1,1,0
   445,'2 ',0,  21,  52,     9.096,     4.165,     0.000,     0.000,     0.000,     0.000,   1,1,0
   445,'3 ',0,  21,  52,     3.500,     0.000,     0.000,     0.000,     0.000,     0.000,   1,1,0
   446,'1 ',1,  21,  52,    21.179,    13.600,     0.000,     0.000,     0.000,     0.000,   1,1,0
   447,'1 ',0,  21,  52,    23.200,    11.800,     0.000,     0.000,     0.000,     0.000,   1,1,0
   447,'2 ',0,  21,  52,    27.288,    12.494,     0.000,     0.000,     0.000,     0.000,   1,1,0
   447,'3 ',0,  21,  52,     3.000,     1.342,     0.000,     0.000,     0.000,     0.000,   1,1,0
   448,'1 ',1,  21,  52,    31.959,    13.719,     0.000,     0.000,     0.000,     0.000,   1,1,0
   448,'2 ',0,  21,  52,    26.500,    11.661,     0.000,     0.000,     0.000,     0.000,   1,1,0
   448,'3 ',0,  21,  52,    10.299,     5.199,     0.000,     0.000,     0.000,     0.000,   1,1,0
   450,'1 ',0,  21,  52,    30.100,    15.400,     0.000,     0.000,     0.000,     0.000,   1,1,0
   450,'2 ',0,  21,  52,     0.000,     0.000,     0.000,     0.000,     0.000,     0.000,   1,1,0
   450,'3 ',0,  21,  52,     0.000,     0.000,     0.000,     0.000,     0.000,     0.000,   1,1,0
   452,'1 ',1,  21,  52,    26.283,    15.063,     0.000,     0.000,     0.000,     0.000,   1,1,0
   454,'2 ',1,  21,  52,     4.245,     2.438,     0.000,     0.000,     0.000,     0.000,   1,1,0
   457,'1 ',1,  21,  52,    16.500,     9.900,     0.000,     0.000,     0.000,     0.000,   2,1,0
   459,'1 ',1,  21,  52,    14.730,     6.520,     0.000,     0.000,     0.000,     0.000,   1,1,0
   459,'2 ',0,  21,  52,     5.276,     1.803,     0.000,     0.000,     0.000,     0.000,   1,1,0
   459,'3 ',0,  21,  52,     7.732,     3.575,     0.000,     0.000,     0.000,     0.000,   1,1,0
   460,'1 ',0,  21,  52,     8.300,     3.550,     0.000,     0.000,     0.000,     0.000,   1,1,0
   462,'1 ',0,  21,  52,    27.630,    11.790,     0.000,     0.000,     0.000,     0.000,   1,1,0
   463,'1 ',1,  21,  52,     4.799,     2.310,     0.000,     0.000,     0.000,     0.000,   1,1,0
   463,'2 ',0,  21,  52,    15.000,     5.000,     0.000,     0.000,     0.000,     0.000,   1,1,0
   467,'1 ',1,  21,  52,     7.155,     2.117,     0.000,     0.000,     0.000,     0.000,   1,1,0
   472,'1 ',1,  21,  52,     1.561,     0.751,     0.000,     0.000,     0.000,     0.000,   1,1,0
   472,'2 ',0,  21,  52,     0.000,     0.000,     0.000,     0.000,     0.000,     0.000,   1,1,0
   480,'1 ',1,  21,  52,     4.198,     2.200,     0.000,     0.000,     0.000,     0.000,   1,1,0
   481,'1 ',0,  21,  52,     4.700,     3.500,     0.000,     0.000,     0.000,     0.000,   1,1,0
   482,'1 ',1,  21,  53,     6.000,     3.600,     0.000,     0.000,     0.000,     0.000,   2,1,0
   520,'1 ',1,  21,  52,     9.063,     4.173,     0.000,     0.000,     0.000,     0.000,   1,1,0
   522,'1 ',1,  21,  52,     2.105,     1.012,     0.000,     0.000,     0.000,     0.000,   1,1,0
   523,'1 ',1,  21,  53,    11.000,     3.000,     0.000,     0.000,     0.000,     0.000,   3,1,0
   524,'1 ',1,  21,  52,     2.972,     1.427,     0.000,     0.000,     0.000,     0.000,   1,1,0
   525,'1 ',1,  21,  53,    11.000,     3.000,     0.000,     0.000,     0.000,     0.000,   3,1,0
   721,'1 ',1,  21,  53,     9.540,     3.500,     0.000,     0.000,     0.000,     0.000,   1,1,0
  1208,'1 ',1,   7,  26,     2.193,     1.293,     0.000,     0.000,     0.000,     0.000,   1,1,0
  1210,'1 ',1,   7,  26,    38.175,    16.511,     0.000,     0.000,     0.000,     0.000,   1,1,0
  1213,'1 ',1,   7,  26,     8.000,     2.500,     0.000,     0.000,     0.000,     0.000,   2,1,0
  1215,'1 ',1,   7,  27,     1.241,     0.510,     0.000,     0.000,     0.000,     0.000,   1,1,0
  1222,'1 ',1,   7,  27,    19.000,     7.800,     0.000,     0.000,     0.000,     0.000,   2,1,0
  1228,'1 ',1,   7,  27,     2.812,     1.139,     0.000,     0.000,     0.000,     0.000,   1,1,0
  1230,'1 ',1,   7,  26,     8.224,     3.379,     0.000,     0.000,     0.000,     0.000,   1,1,0
  1234,'1 ',1,   7,  27,     6.511,     1.864,     0.000,     0.000,     0.000,     0.000,   1,1,0
  1235,'1 ',1,   7,  26,    16.524,     5.747,     0.000,     0.000,     0.000,     0.000,   1,1,0
  1236,'1 ',1,   7,  27,     6.854,     2.817,     0.000,     0.000,     0.000,     0.000,   1,1,0
  1238,'1 ',1,   7,  25,    12.337,     4.849,     0.000,     0.000,     0.000,     0.000,   1,1,0
  1242,'1 ',1,   7,  27,     3.084,     1.267,     0.000,     0.000,     0.000,     0.000,   1,1,0
  1246,'1 ',1,   7,  27,     1.638,     0.673,     0.000,     0.000,     0.000,     0.000,   1,1,0
  1248,'1 ',1,   7,  25,     6.854,     2.694,     0.000,     0.000,     0.000,     0.000,   1,1,0
  1250,'1 ',1,   7,  25,    32.075,    18.357,     0.000,     0.000,     0.000,     0.000,   1,1,0
  1252,'1 ',1,   7,  26,    32.212,     8.536,     0.000,     0.000,     0.000,     0.000,   1,1,0
  1256,'1 ',1,   7,  25,     9.253,     4.134,     0.000,     0.000,     0.000,     0.000,   1,1,0
  1257,'1 ',0,   7,  25,     7.890,     4.177,     0.000,     0.000,     0.000,     0.000,   1,1,0
  1261,'1 ',1,   7,  27,     0.000,     0.000,     0.000,     0.000,     0.000,     0.000,   1,1,0
  1262,'1 ',1,   7,  27,     5.007,     2.019,     0.000,     0.000,     0.000,     0.000,   1,1,0
  1264,'1 ',1,   7,  26,    13.707,     5.634,     0.000,     0.000,     0.000,     0.000,   1,1,0
  1266,'1 ',1,   7,  27,     1.506,     0.619,     0.000,     0.000,     0.000,     0.000,   1,1,0
  1267,'1 ',1,   7,  27,     3.081,     1.211,     0.000,     0.000,     0.000,     0.000,   1,1,0
  1270,'1 ',1,   7,  27,     0.708,     0.291,     0.000,     0.000,     0.000,     0.000,   1,1,0
  1271,'1 ',1,   7,  25,     2.838,     1.489,     0.000,     0.000,     0.000,     0.000,   1,1,0
  1272,'1 ',1,   7,  26,     1.334,     0.653,     0.000,     0.000,     0.000,     0.000,   1,1,0
  1274,'1 ',1,   7,  27,    15.901,     3.356,     0.000,     0.000,     0.000,     0.000,   1,1,0
  1275,'1 ',1,   7,  25,     0.400,     0.100,     0.000,     0.000,     0.000,     0.000,   3,1,0
  1276,'1 ',1,   7,  27,     6.168,     3.408,     0.000,     0.000,     0.000,     0.000,   1,1,0
  1278,'1 ',1,   7,  27,     8.224,     3.380,     0.000,     0.000,     0.000,     0.000,   1,1,0
  1280,'1 ',1,   7,  27,    30.000,    10.000,     0.000,     0.000,     0.000,     0.000,   2,1,0
  1287,'1 ',1,   7,  25,     4.851,     0.759,     0.000,     0.000,     0.000,     0.000,   1,1,0
  1290,'1 ',1,   7,  26,     2.445,     1.004,     0.000,     0.000,     0.000,     0.000,   1,1,0
  1291,'1 ',1,   7,  25,     5.430,     1.639,     0.000,     0.000,     0.000,     0.000,   1,1,0
  1292,'1 ',1,   7,  25,    42.150,    18.283,     0.000,     0.000,     0.000,     0.000,   1,1,0
  1293,'1 ',1,   7,  25,    14.393,     6.730,     0.000,     0.000,     0.000,     0.000,   1,1,0
  1294,'1 ',1,   7,  26,    12.100,     6.200,     0.000,     0.000,     0.000,     0.000,   2,1,0
  1295,'1 ',1,   7,  25,    18.025,     7.819,     0.000,     0.000,     0.000,     0.000,   1,1,0
  1296,'1 ',1,   7,  26,    15.353,     5.611,     0.000,     0.000,     0.000,     0.000,   1,1,0
  1400,'1 ',1,   7,  27,    21.000,     6.900,     0.000,     0.000,     0.000,     0.000,   1,1,0
  1400,'S2',1,   7,  27,     0.084,     0.063,     0.000,     0.000,     0.000,     0.000,   1,1,0
  1500,'1 ',1,   7,  27,     3.275,     1.346,     0.000,     0.000,     0.000,     0.000,   1,1,0
  1501,'1 ',1,   7,  27,     3.275,     1.346,     0.000,     0.000,     0.000,     0.000,   1,1,0
  1502,'1 ',1,   7,  27,    47.976,    25.863,     0.000,     0.000,     0.000,     0.000,   1,1,0
  1503,'1 ',1,   7,  27,     1.371,     0.279,     0.000,     0.000,     0.000,     0.000,   1,1,0
  1504,'1 ',1,   7,  27,    55.000,    25.000,     0.000,     0.000,     0.000,     0.000,   2,1,0
  1505,'1 ',1,   7,  27,     4.632,     2.241,     0.000,     0.000,     0.000,     0.000,   1,1,0
  1507,'1 ',1,   7,  27,    18.505,     7.759,     0.000,     0.000,     0.000,     0.000,   1,1,0
  1508,'1 ',1,   7,  25,    11.743,     3.185,     0.000,     0.000,     0.000,     0.000,   1,1,0
  1514,'1 ',1,   7,  26,    22.000,     6.333,     0.000,     0.000,     0.000,     0.000,   2,1,0
  1530,'2 ',1,   7,  27,    29.000,     9.500,     0.000,     0.000,     0.000,     0.000,   1,1,0
  1543,'1 ',1,   7,  27,     2.461,     1.011,     0.000,     0.000,     0.000,     0.000,   1,1,0
  1544,'1 ',1,   7,  27,     2.977,     1.223,     0.000,     0.000,     0.000,     0.000,   1,1,0
  1547,'1 ',1,   7,  27,     0.108,     0.045,     0.000,     0.000,     0.000,     0.000,   1,1,0
  1548,'1 ',1,   7,  27,     1.480,     0.609,     0.000,     0.000,     0.000,     0.000,   1,1,0
  1549,'1 ',1,   7,  27,     0.548,     0.225,     0.000,     0.000,     0.000,     0.000,   1,1,0
  1561,'1 ',0,   7,  26,     0.000,     0.000,     0.000,     0.000,     0.000,     0.000,   1,1,0
  1566,'1 ',1,   7,  26,    13.088,     5.379,     0.000,     0.000,     0.000,     0.000,   1,1,0
  1568,'1 ',1,   7,  26,     1.445,     0.593,     0.000,     0.000,     0.000,     0.000,   1,1,0
  1570,'1 ',1,   7,  26,     2.618,     1.076,     0.000,     0.000,     0.000,     0.000,   1,1,0
  1572,'1 ',1,   7,  26,     1.353,     0.557,     0.000,     0.000,     0.000,     0.000,   1,1,0
  1606,'1 ',1,   7,  27,    12.000,     6.000,     0.000,     0.000,     0.000,     0.000,   3,1,0
  1620,'1 ',1,   7,  27,    21.113,     8.677,     0.000,     0.000,     0.000,     0.000,   1,1,0
  1634,'1 ',1,   7,  27,     1.719,     0.573,     0.000,     0.000,     0.000,     0.000,   3,1,0
  1640,'1 ',1,   7,  27,    10.081,     3.436,     0.000,     0.000,     0.000,     0.000,   3,1,0
  1644,'1 ',1,   7,  26,    15.100,     6.900,     0.000,     0.000,     0.000,     0.000,   2,1,0
  1647,'1 ',1,   7,  26,    15.000,     5.000,     0.000,     0.000,     0.000,     0.000,   2,1,0
  1818,'1 ',1,   7,  27,    14.000,     6.000,     0.000,     0.000,     0.000,     0.000,   2,1,0
  1840,'1 ',1,   7,  27,     2.461,     1.011,     0.000,     0.000,     0.000,     0.000,   1,1,0
  1841,'1 ',1,   7,  27,     0.931,     0.381,     0.000,     0.000,     0.000,     0.000,   1,1,0
  1850,'1 ',1,   7,  26,     9.150,     3.800,     0.000,     0.000,     0.000,     0.000,   1,1,0
  1851,'1 ',0,   7,  26,     0.000,     0.000,     0.000,     0.000,     0.000,     0.000,   1,1,0
  1870,'1 ',1,   7,  26,     8.300,     2.900,     0.000,     0.000,     0.000,     0.000,   2,1,0
  2200,'1 ',1,   5,  22,    47.944,    22.237,     0.000,     0.000,     0.000,     0.000,   1,1,0
  2204,'1 ',1,   5,  22,    30.230,    17.252,     0.000,     0.000,     0.000,     0.000,   1,1,0
  2209,'SC',1,   5,  24,     0.000,     0.000,     0.000,     0.000,     0.000,     0.000,  10,1,0
  2210,'1 ',1,   5,  22,    34.155,    15.010,     0.000,     0.000,     0.000,     0.000,   1,1,0
  2211,'SC',1,   5,  24,     0.000,     0.000,     0.000,     0.000,     0.000,     0.000,  10,1,0
  2212,'1 ',1,   5,  22,    21.744,    11.118,     0.000,     0.000,     0.000,     0.000,   1,1,0
  2214,'SC',1,   5,  21,     0.000,     0.000,     0.000,     0.000,     0.000,     0.000,   1,1,0
  2215,'1 ',1,   5,  21,     8.000,   -10.000,     0.000,     0.000,     0.000,     0.000,   2,1,0
  2216,'1 ',1,   5,  21,    16.971,     9.035,     0.000,     0.000,     0.000,     0.000,   1,1,0
  2220,'1 ',1,   5,  22,    18.000,     7.000,     0.000,     0.000,     0.000,     0.000,   2,1,0
  2221,'1 ',0,   5,  23,    45.000,    15.000,     0.000,     0.000,     0.000,     0.000,   2,1,0
  2222,'1 ',1,   5,  24,     6.152,     4.336,     0.000,     0.000,     0.000,     0.000,   1,1,0
  2224,'1 ',1,   5,  23,    61.521,    35.021,     0.000,     0.000,     0.000,     0.000,   1,1,0
  2225,'1 ',1,   5,  23,    12.500,     4.100,     0.000,     0.000,     0.000,     0.000,   2,1,0
  2226,'1 ',1,   5,  21,    24.608,    16.166,     0.000,     0.000,     0.000,     0.000,   1,1,0
  2227,'1 ',1,   5,  21,    13.120,     5.782,     0.000,     0.000,     0.000,     0.000,   1,1,0
  2229,'1 ',1,   5,  22,    32.581,    10.329,     0.000,     0.000,     0.000,     0.000,   1,1,0
  2230,'1 ',1,   5,  21,    41.000,    19.000,     0.000,     0.000,     0.000,     0.000,   1,1,0
  2232,'1 ',1,   5,  24,     8.910,     5.909,     0.000,     0.000,     0.000,     0.000,   1,1,0
  2233,'1 ',1,   5,  23,    37.867,    17.862,     0.000,     0.000,     0.000,     0.000,   1,1,0
  2234,'1 ',1,   5,  24,    21.744,    12.786,     0.000,     0.000,     0.000,     0.000,   1,1,0
  2235,'1 ',1,   5,  24,    10.077,     6.683,     0.000,     0.000,     0.000,     0.000,   1,1,0
  2236,'1 ',1,   5,  22,    15.911,     4.626,     0.000,     0.000,     0.000,     0.000,   1,1,0
  2238,'1 ',1,   5,  22,     8.919,     5.255,     0.000,     0.000,     0.000,     0.000,   1,1,0
  2240,'1 ',1,   5,  22,     5.303,     3.336,     0.000,     0.000,     0.000,     0.000,   1,1,0
  2242,'1 ',1,   5,  22,    20.153,    11.118,     0.000,     0.000,     0.000,     0.000,   1,1,0
  2243,'1 ',1,   5,  22,    20.153,    11.118,     0.000,     0.000,     0.000,     0.000,   1,1,0
  2244,'1 ',1,   5,  21,    20.442,     9.825,     0.000,     0.000,     0.000,     0.000,   1,1,0
  2246,'1 ',1,   5,  21,    10.783,     5.182,     0.000,     0.000,     0.000,     0.000,   1,1,0
  2248,'1 ',1,   5,  22,    21.214,    10.229,     0.000,     0.000,     0.000,     0.000,   1,1,0
  2249,'1 ',1,   5,  22,    25.669,     8.760,     0.000,     0.000,     0.000,     0.000,   1,1,0
  2252,'1 ',1,   5,  23,    60.460,    30.639,     0.000,     0.000,     0.000,     0.000,   1,1,0
  2253,'1 ',1,   5,  23,     7.783,     3.336,     0.000,     0.000,     0.000,     0.000,   1,1,0
  2254,'1 ',1,   5,  24,     6.364,     3.558,     0.000,     0.000,     0.000,     0.000,   1,1,0
  2256,'SC',1,   5,  22,     0.000,     0.000,     0.000,     0.000,     0.000,     0.000,   1,1,0
  2257,'1 ',1,   5,  22,    11.179,     3.797,     0.000,     0.000,     0.000,     0.000,   1,1,0
  2258,'1 ',1,   5,  22,    11.137,     5.276,     0.000,     0.000,     0.000,     0.000,   1,1,0
...
0 / END OF LOAD DATA, BEGIN FIXED SHUNT DATA
  1661,'1 ',1,     0.000,     0.000
  1662,'1 ',1,     0.000,     0.000
  1663,'1 ',1,     0.000,     0.000
  1664,'1 ',1,     0.000,     0.000
  1665,'1 ',1,     0.000,     0.000
  1666,'1 ',1,     0.000,     0.000
  1691,'1 ',1,     0.000,     0.000
  1692,'1 ',1,     0.000,     0.000
  3213,'1 ',1,     0.000,    24.000
  3224,'1 ',1,     0.000,    12.000
  3229,'1 ',1,     0.000,    12.000
  3232,'1 ',1,     0.000,    12.000
  3260,'1 ',1,     0.000,    12.000
  3293,'1 ',1,     0.000,    12.000
  3294,'1 ',1,     0.000,    14.400
  3334,'1 ',1,     0.000,     6.000
  3336,'1 ',1,     0.000,     6.000
  3338,'1 ',1,     0.000,    24.000
  3342,'1 ',1,     0.000,    12.000
  3350,'1 ',1,     0.000,    12.000
  3360,'1 ',1,     0.000,    12.000
  3372,'1 ',1,     0.000,    18.000
  3375,'1 ',1,     0.000,    12.000
  3380,'1 ',1,     0.000,    18.000
  3382,'1 ',1,     0.000,    24.000
  3410,'1 ',1,     0.000,     9.600
  3448,'1 ',1,     0.000,    12.000
  3453,'1 ',1,     0.000,    12.000
  3466,'1 ',1,     0.000,    12.000
  3467,'1 ',1,     0.000,    12.000
  3471,'1 ',1,     0.000,    12.000
  3478,'1 ',1,     0.000,    12.000
 90000,'1 ',1,     0.000,     3.034
 90080,'1 ',1,     0.000,     2.803
 90100,'1 ',1,     0.000,     3.308
 90160,'1 ',1,     0.000,     1.860
 90170,'1 ',1,     0.000,     1.993
 90200,'1 ',1,     0.000,     2.352
 90300,'1 ',1,     0.000,     2.666
 90481,'1 ',0,     0.000,     2.340
 90500,'1 ',1,     0.000,     5.561
 90511,'1 ',1,     0.000,     0.400
 90512,'1 ',1,     0.000,     0.400
 90513,'1 ',1,     0.000,     0.400
 90700,'1 ',1,     0.000,     1.732
 92401,'1 ',1,     0.000,    15.000
 95960,'1 ',1,     0.000,    20.000
0 / END OF FIXED SHUNT DATA, BEGIN GENERATOR DATA
    30,'1 ',   906.837,   240.911,  9999.000, -9999.000,1.05000,     0,  1000.000, 1.26500E-2, 1.44500E-1, 0.00000E+0, 0.00000E+0,1.00000,0,  100.0,  1100.000, -1100.000,  10,1.0000
   102,'1 ',   110.000,    11.848,    60.000,   -60.000,1.00000,     0,   118.000, 0.00000E+0, 2.00000E-1, 0.00000E+0, 0.00000E+0,1.00000,1,  100.0,  9999.000, -9999.000,   6,1.0000
   104,'1 ',   110.000,    11.848,    60.000,   -60.000,1.00000,     0,   118.000, 0.00000E+0, 2.00000E-1, 0.00000E+0, 0.00000E+0,1.00000,1,  100.0,  9999.000, -9999.000,   6,1.0000
   106,'1 ',   110.000,    15.464,    60.000,   -60.000,1.00000,     0,   118.000, 0.00000E+0, 2.00000E-1, 0.00000E+0, 0.00000E+0,1.00000,1,  100.0,  9999.000, -9999.000,   6,1.0000
   108,'1 ',   110.000,    11.848,    60.000,   -60.000,1.00000,     0,   118.000, 0.00000E+0, 2.00000E-1, 0.00000E+0, 0.00000E+0,1.00000,1,  100.0,  9999.000, -9999.000,   6,1.0000
   190,'9 ',   155.000,     0.482,    99.600,   -40.800,1.00000,   259,   184.500, 0.00000E+0, 1.88000E-1, 0.00000E+0, 0.00000E+0,1.00000,1,  100.0,   165.000, -9999.000,   8,1.0000
   191,'10',   155.000,     0.482,    99.600,   -40.800,1.00000,   259,   184.500, 0.00000E+0, 1.88000E-1, 0.00000E+0, 0.00000E+0,1.00000,1,  100.0,   165.000, -9999.000,   8,1.0000
   192,'11',   130.000,     0.482,   114.000,   -80.000,1.00000,   259,   190.800, 0.00000E+0, 1.88000E-1, 0.00000E+0, 0.00000E+0,1.00000,1,  100.0,   140.000,    80.000,   8,1.0000
   201,'1 ',    18.000,    15.000,    15.000,   -14.000,1.05000,     0,    39.500, 0.00000E+0, 1.30000E-1, 0.00000E+0, 0.00000E+0,1.00000,1,  100.0,    20.000,     0.000,   4,1.0000
   202,'2 ',    19.999,    16.889,    20.000,   -14.000,1.05000,     0,    39.500, 0.00000E+0, 1.30000E-1, 0.00000E+0, 0.00000E+0,1.00000,1,  100.0,  9999.000,     0.000,   4,1.0000
   203,'3 ',    19.999,    16.889,    20.000,   -14.000,1.05000,     0,    39.500, 0.00000E+0, 1.30000E-1, 0.00000E+0, 0.00000E+0,1.00000,1,  100.0,  9999.000,     0.000,   4,1.0000
   204,'4 ',    20.002,    16.889,    20.000,   -14.000,1.05000,     0,    39.500, 0.00000E+0, 1.30000E-1, 0.00000E+0, 0.00000E+0,1.00000,1,  100.0,    20.000,     0.000,   4,1.0000
   205,'5 ',    38.000,    19.191,    22.000,    -6.000,1.05000,     0,    45.400, 0.00000E+0, 1.66000E-1, 0.00000E+0, 0.00000E+0,1.00000,1,  100.0,    38.200,     0.000,   4,1.0000
   206,'6 ',    32.000,    16.319,    20.000,    -6.000,1.03000,     0,    45.400, 0.00000E+0, 1.66000E-1, 0.00000E+0, 0.00000E+0,1.00000,1,  100.0,    38.200,     0.000,   4,1.0000
   207,'7 ',    38.000,     6.706,    28.180,   -21.270,1.00000,   216,    48.200, 0.00000E+0, 1.69000E-1, 0.00000E+0, 0.00000E+0,1.00000,1,  100.0,    49.000,     0.000,   8,1.0000
   208,'8 ',    38.000,     6.706,    28.181,   -21.273,1.00000,   216,    48.200, 0.00000E+0, 1.69000E-1, 0.00000E+0, 0.00000E+0,1.00000,1,  100.0,    49.000,     0.000,   8,1.0000
   209,'9 ',    32.000,     6.706,    30.000,   -17.656,1.00000,   216,    50.350, 0.00000E+0, 1.83000E-1, 0.00000E+0, 0.00000E+0,1.00000,1,  100.0,    50.350,     0.000,   8,1.0000
   219,'21',    18.000,     7.511,    15.000,   -10.000,1.05000,     0,    31.500, 0.00000E+0, 1.50000E-1, 0.00000E+0, 0.00000E+0,1.00000,0,  100.0,    21.000, -9999.000,   4,1.0000
   219,'22',    18.000,     7.511,    15.000,   -10.000,1.05000,     0,    31.500, 0.00000E+0, 1.50000E-1, 0.00000E+0, 0.00000E+0,1.00000,0,  100.0,    21.000,     0.000,   4,1.0000
   232,'1 ',    -0.281,    -0.120,    -0.120,    -0.120,1.00000,     0,     0.336, 0.00000E+0, 1.57330E-1, 0.00000E+0, 0.00000E+0,1.00000,0,  100.0,  9999.000, -9999.000,   1,1.0000
   232,'2 ',    -0.421,    -0.179,    -0.179,    -0.179,1.00000,     0,     0.503, 0.00000E+0, 1.57330E-1, 0.00000E+0, 0.00000E+0,1.00000,0,  100.0,  9999.000, -9999.000,   1,1.0000
   232,'3 ',    -0.561,    -0.239,    -0.239,    -0.239,1.00000,     0,     0.671, 0.00000E+0, 1.57330E-1, 0.00000E+0, 0.00000E+0,1.00000,0,  100.0,  9999.000, -9999.000,   1,1.0000
   232,'4 ',   -10.804,    -5.000,    -5.000,    -5.000,1.00000,     0,    10.800, 0.00000E+0, 1.57330E-1, 0.00000E+0, 0.00000E+0,1.00000,0,  100.0,  9999.000, -9999.000,   1,1.0000
   234,'1 ',    20.000,     9.850,    20.150,    -5.716,1.03000,     0,    31.500, 0.00000E+0, 1.50000E-1, 0.00000E+0, 0.00000E+0,1.00000,0,  100.0,    21.000, -9999.000,   4,1.0000
   234,'2 ',    15.000,     7.472,    20.150,    -5.716,1.03000,     0,    27.000, 0.00000E+0, 1.50000E-1, 0.00000E+0, 0.00000E+0,1.00000,0,  100.0,    21.000,     0.000,   4,1.0000
   242,'1 ',    -0.440,    -0.225,    -0.225,    -0.225,1.00000,     0,     0.543, 0.00000E+0, 1.57330E-1, 0.00000E+0, 0.00000E+0,1.00000,0,  100.0,  9999.000, -9999.000,   1,1.0000
   242,'2 ',    -0.659,    -0.338,    -0.338,    -0.338,1.00000,     0,     0.815, 0.00000E+0, 1.57330E-1, 0.00000E+0, 0.00000E+0,1.00000,0,  100.0,  9999.000, -9999.000,   1,1.0000
   242,'3 ',    -0.879,    -0.450,    -0.450,    -0.450,1.00000,     0,     1.087, 0.00000E+0, 1.57330E-1, 0.00000E+0, 0.00000E+0,1.00000,0,  100.0,  9999.000, -9999.000,   1,1.0000
   242,'4 ',   -11.962,    -3.730,    -3.730,    -3.730,1.00000,     0,    12.190, 0.00000E+0, 1.57330E-1, 0.00000E+0, 0.00000E+0,1.00000,0,  100.0,  9999.000, -9999.000,   1,1.0000
   251,'1 ',    12.000,     2.387,    15.000,    -6.000,1.04000,     0,    29.200, 0.00000E+0, 2.10000E-1, 0.00000E+0, 0.00000E+0,1.00000,1,  100.0,    23.400,     0.000,   6,1.0000
   252,'2 ',    20.000,     0.876,    15.000,    -6.000,1.04000,     0,    29.200, 0.00000E+0, 2.10000E-1, 0.00000E+0, 0.00000E+0,1.00000,1,  100.0,    23.400,     0.000,   6,1.0000
   304,'1 ',     0.000,     0.000,     7.000,    -7.000,1.00000,     0,    20.000, 0.00000E+0, 1.80000E-1, 0.00000E+0, 0.00000E+0,1.00000,0,  100.0,  9999.000, -9999.000,   4,1.0000
   304,'2 ',     0.000,     0.000,     7.000,    -7.000,1.00000,     0,    20.000, 0.00000E+0, 1.80000E-1, 0.00000E+0, 0.00000E+0,1.00000,0,  100.0,  9999.000, -9999.000,   4,1.0000
   342,'G1',    50.000,    -4.558,    30.000,   -10.000,1.03000,     0,    55.000, 0.00000E+0, 1.70000E-1, 0.00000E+0, 0.00000E+0,1.00000,0,  100.0,    50.000,    10.000,   1,1.0000
   342,'V1',     8.000,    -0.677,     5.000,    -2.000,1.03000,     0,    10.000, 0.00000E+0, 1.25000E-1, 0.00000E+0, 0.00000E+0,1.00000,0,  100.0,     8.000,     2.000,   1,1.0000
   344,'V2',    14.000,     4.000,     4.000,     4.000,1.00000,     0,    15.000, 0.00000E+0, 1.25000E-1, 0.00000E+0, 0.00000E+0,1.00000,0,  100.0,    14.000,     2.000,   1,1.0000
   406,'1 ',    25.500,   -10.000,    15.000,   -10.000,1.00000,     0,    32.250, 0.00000E+0, 1.50000E-1, 0.00000E+0, 0.00000E+0,1.00000,0,  100.0,  9999.000, -9999.000,   4,1.0000
   406,'2 ',    25.000,     1.279,    10.000,    -5.000,1.00000,     0,    22.000, 0.00000E+0, 1.52000E-1, 0.00000E+0, 0.00000E+0,1.00000,0,  100.0,  9999.000, -9999.000,   4,1.0000
   409,'1 ',    11.500,    -0.202,    12.000,    -7.000,1.00000,     0,    22.500, 0.00000E+0, 1.50000E-1, 0.00000E+0, 0.00000E+0,1.00000,0,  100.0,  9999.000, -9999.000,   4,1.0000
   410,'1 ',    -0.681,    -0.288,    -0.288,    -0.288,1.00000,     0,     0.814, 0.00000E+0, 1.57330E-1, 0.00000E+0, 0.00000E+0,1.00000,0,  100.0,  9999.000, -9999.000,   1,1.0000
   410,'2 ',    -1.022,    -0.432,    -0.432,    -0.432,1.00000,     0,     1.220, 0.00000E+0, 1.57330E-1, 0.00000E+0, 0.00000E+0,1.00000,0,  100.0,  9999.000, -9999.000,   1,1.0000
   410,'3 ',    -1.362,    -0.576,    -0.576,    -0.576,1.00000,     0,     1.627, 0.00000E+0, 1.57330E-1, 0.00000E+0, 0.00000E+0,1.00000,0,  100.0,  9999.000, -9999.000,   1,1.0000
   410,'4 ',   -19.073,    -8.800,    -8.800,    -8.800,1.00000,     0,    28.000, 0.00000E+0, 1.57330E-1, 0.00000E+0, 0.00000E+0,1.00000,0,  100.0,  9999.000, -9999.000,   1,1.0000
   420,'1 ',    -1.004,    -0.428,    -0.428,    -0.428,1.00000,     0,     1.201, 0.00000E+0, 1.57330E-1, 0.00000E+0, 0.00000E+0,1.00000,0,  100.0,  9999.000, -9999.000,   1,1.0000
   420,'2 ',    -1.506,    -0.642,    -0.642,    -0.642,1.00000,     0,     1.801, 0.00000E+0, 1.57330E-1, 0.00000E+0, 0.00000E+0,1.00000,0,  100.0,  9999.000, -9999.000,   1,1.0000
   420,'3 ',    -2.008,    -0.856,    -0.856,    -0.856,1.00000,     0,     2.402, 0.00000E+0, 1.57330E-1, 0.00000E+0, 0.00000E+0,1.00000,0,  100.0,  9999.000, -9999.000,   1,1.0000
   420,'4 ',   -33.295,   -10.000,   -10.000,   -10.000,1.00000,     0,    34.730, 0.00000E+0, 1.57330E-1, 0.00000E+0, 0.00000E+0,1.00000,0,  100.0,  9999.000, -9999.000,   1,1.0000
   422,'1 ',    16.000,     2.292,    13.000,    -7.000,0.98000,     0,    26.150, 0.00000E+0, 1.70000E-1, 0.00000E+0, 0.00000E+0,1.00000,0,  100.0,    20.500,     0.000,   4,1.0000
   437,'1 ',    20.000,     4.928,    15.000,    -5.000,1.05000,     0,    30.400, 0.00000E+0, 2.01000E-1, 0.00000E+0, 0.00000E+0,1.00000,0,  100.0,    25.000,     0.000,   8,1.0000
   437,'2 ',    20.000,     4.614,    15.000,    -5.000,1.05000,     0,    30.400, 0.00000E+0, 2.01000E-1, 0.00000E+0, 0.00000E+0,1.00000,0,  100.0,    25.000,     0.000,   8,1.0000
   438,'2 ',    20.000,     4.441,    15.000,    -5.000,1.05000,     0,    28.000, 0.00000E+0, 1.86000E-1, 0.00000E+0, 0.00000E+0,1.00000,0,  100.0,    22.600,     0.000,   8,1.0000
   440,'1 ',    -0.434,    -0.325,    -0.325,    -0.325,1.00000,     0,     0.596, 0.00000E+0, 1.57330E-1, 0.00000E+0, 0.00000E+0,1.00000,0,  100.0,  9999.000, -9999.000,   1,1.0000
   440,'2 ',    -0.650,    -0.488,    -0.488,    -0.488,1.00000,     0,     0.894, 0.00000E+0, 1.57330E-1, 0.00000E+0, 0.00000E+0,1.00000,0,  100.0,  9999.000, -9999.000,   1,1.0000
   440,'3 ',    -0.867,    -0.650,    -0.650,    -0.650,1.00000,     0,     1.192, 0.00000E+0, 1.57330E-1, 0.00000E+0, 0.00000E+0,1.00000,0,  100.0,  9999.000, -9999.000,   1,1.0000
   440,'4 ',   -12.238,    -4.000,    -4.000,    -4.000,1.00000,     0,    20.700, 0.00000E+0, 1.57330E-1, 0.00000E+0, 0.00000E+0,1.00000,0,  100.0,  9999.000, -9999.000,   1,1.0000
   442,'1 ',    -0.138,    -0.055,    -0.055,    -0.055,1.00000,     0,     0.164, 0.00000E+0, 1.57330E-1, 0.00000E+0, 0.00000E+0,1.00000,0,  100.0,  9999.000, -9999.000,   1,1.0000
   442,'2 ',    -0.208,    -0.082,    -0.082,    -0.082,1.00000,     0,     0.246, 0.00000E+0, 1.57330E-1, 0.00000E+0, 0.00000E+0,1.00000,0,  100.0,  9999.000, -9999.000,   1,1.0000
   442,'3 ',    -0.277,    -0.110,    -0.110,    -0.110,1.00000,     0,     0.327, 0.00000E+0, 1.57330E-1, 0.00000E+0, 0.00000E+0,1.00000,0,  100.0,  9999.000, -9999.000,   1,1.0000
   442,'4 ',    -6.064,    -3.000,    -3.000,    -3.000,1.00000,     0,     6.320, 0.00000E+0, 1.57330E-1, 0.00000E+0, 0.00000E+0,1.00000,0,  100.0,  9999.000, -9999.000,   1,1.0000
   444,'1 ',    -0.444,    -0.240,    -0.240,    -0.240,1.00000,     0,     0.555, 0.00000E+0, 1.57330E-1, 0.00000E+0, 0.00000E+0,1.00000,0,  100.0,  9999.000, -9999.000,   1,1.0000
   444,'2 ',    -0.665,    -0.359,    -0.359,    -0.359,1.00000,     0,     0.832, 0.00000E+0, 1.57330E-1, 0.00000E+0, 0.00000E+0,1.00000,0,  100.0,  9999.000, -9999.000,   1,1.0000
   444,'3 ',    -0.887,    -0.479,    -0.479,    -0.479,1.00000,     0,     1.109, 0.00000E+0, 1.57330E-1, 0.00000E+0, 0.00000E+0,1.00000,0,  100.0,  9999.000, -9999.000,   1,1.0000
   444,'4 ',   -14.112,    -5.900,    -5.900,    -5.900,1.00000,     0,    13.100, 0.00000E+0, 1.57330E-1, 0.00000E+0, 0.00000E+0,1.00000,0,  100.0,  9999.000, -9999.000,   1,1.0000
   445,'1 ',    -0.320,    -0.240,    -0.240,    -0.240,1.01000,     0,     0.440, 0.00000E+0, 1.57330E-1, 0.00000E+0, 0.00000E+0,1.00000,0,  100.0,  9999.000, -9999.000,   1,1.0000
   445,'2 ',    -0.480,    -0.360,    -0.360,    -0.360,1.01000,     0,     0.660, 0.00000E+0, 1.57330E-1, 0.00000E+0, 0.00000E+0,1.00000,0,  100.0,  9999.000, -9999.000,   1,1.0000
   445,'3 ',    -0.640,    -0.480,    -0.480,    -0.480,1.01000,     0,     0.880, 0.00000E+0, 1.57330E-1, 0.00000E+0, 0.00000E+0,1.00000,0,  100.0,  9999.000, -9999.000,   1,1.0000
   445,'4 ',    -8.489,    -2.800,    -2.800,    -2.800,1.01000,     0,     9.020, 0.00000E+0, 1.57330E-1, 0.00000E+0, 0.00000E+0,1.00000,0,  100.0,  9999.000, -9999.000,   1,1.0000
   447,'1 ',    -0.960,    -0.544,    -0.544,    -0.544,1.00000,     0,     1.214, 0.00000E+0, 1.57330E-1, 0.00000E+0, 0.00000E+0,1.00000,0,  100.0,  9999.000, -9999.000,   1,1.0000
   447,'2 ',    -1.440,    -0.816,    -0.816,    -0.816,1.00000,     0,     1.821, 0.00000E+0, 1.57330E-1, 0.00000E+0, 0.00000E+0,1.00000,0,  100.0,  9999.000, -9999.000,   1,1.0000
   447,'3 ',    -1.920,    -1.088,    -1.088,    -1.088,1.00000,     0,     2.428, 0.00000E+0, 1.57330E-1, 0.00000E+0, 0.00000E+0,1.00000,0,  100.0,  9999.000, -9999.000,   1,1.0000
   447,'4 ',   -26.570,   -11.300,   -11.300,   -11.300,1.00000,     0,    24.882, 0.00000E+0, 1.57330E-1, 0.00000E+0, 0.00000E+0,1.00000,0,  100.0,  9999.000, -9999.000,   1,1.0000
   448,'1 ',    -0.740,    -0.315,    -0.315,    -0.315,1.00000,     0,     0.885, 0.00000E+0, 1.57330E-1, 0.00000E+0, 0.00000E+0,1.00000,0,  100.0,  9999.000, -9999.000,   1,1.0000
   448,'2 ',    -1.110,    -0.473,    -0.473,    -0.473,1.00000,     0,     1.327, 0.00000E+0, 1.57330E-1, 0.00000E+0, 0.00000E+0,1.00000,0,  100.0,  9999.000, -9999.000,   1,1.0000
   448,'3 ',   -19.404,    -2.000,    -2.000,    -2.000,1.00000,     0,    20.000, 0.00000E+0, 1.57330E-1, 0.00000E+0, 0.00000E+0,1.00000,0,  100.0,  9999.000, -9999.000,   1,1.0000
   448,'4 ',    -8.820,    -1.500,    -1.500,    -1.500,1.00000,     0,    31.500, 0.00000E+0, 1.57330E-1, 0.00000E+0, 0.00000E+0,1.00000,0,  100.0,  9999.000, -9999.000,   1,1.0000
   450,'1 ',    -0.195,    -0.082,    -0.082,    -0.082,1.00000,     0,     0.232, 0.00000E+0, 1.57330E-1, 0.00000E+0, 0.00000E+0,1.00000,0,  100.0,  9999.000, -9999.000,   1,1.0000
   450,'2 ',    -0.292,    -0.122,    -0.122,    -0.122,1.00000,     0,     0.348, 0.00000E+0, 1.57330E-1, 0.00000E+0, 0.00000E+0,1.00000,0,  100.0,  9999.000, -9999.000,   1,1.0000
   450,'3 ',    -0.400,    -0.200,    -0.200,    -0.200,1.00000,     0,     0.464, 0.00000E+0, 1.57330E-1, 0.00000E+0, 0.00000E+0,1.00000,0,  100.0,  9999.000, -9999.000,   1,1.0000
   450,'4 ',    -5.071,    -2.100,    -2.100,    -2.100,1.00000,     0,     5.750, 0.00000E+0, 1.57330E-1, 0.00000E+0, 0.00000E+0,1.00000,0,  100.0,  9999.000, -9999.000,   1,1.0000
   453,'1 ',     3.000,     1.908,     2.520,    -2.079,1.03000,     0,     6.300, 0.00000E+0, 9.99900E+3, 0.00000E+0, 0.00000E+0,1.00000,1,  100.0,     6.300,     0.000,   1,1.0000
   459,'1 ',    -0.322,    -0.127,    -0.127,    -0.127,1.00000,     0,     0.380, 0.00000E+0, 1.57330E-1, 0.00000E+0, 0.00000E+0,1.00000,0,  100.0,  9999.000, -9999.000,   1,1.0000
   459,'2 ',    -0.482,    -0.191,    -0.191,    -0.191,1.00000,     0,     0.571, 0.00000E+0, 1.57330E-1, 0.00000E+0, 0.00000E+0,1.00000,0,  100.0,  9999.000, -9999.000,   1,1.0000
   459,'3 ',    -0.643,    -0.254,    -0.254,    -0.254,1.00000,     0,     0.761, 0.00000E+0, 1.57330E-1, 0.00000E+0, 0.00000E+0,1.00000,0,  100.0,  9999.000, -9999.000,   1,1.0000
   459,'4 ',    -5.843,    -1.800,    -1.800,    -1.800,1.00000,     0,     7.797, 0.00000E+0, 1.57330E-1, 0.00000E+0, 0.00000E+0,1.00000,0,  100.0,  9999.000, -9999.000,   1,1.0000
   463,'1 ',     1.350,     0.729,     0.729,    -0.729,1.00000,     0,     1.688, 0.00000E+0, 1.57330E-1, 0.00000E+0, 0.00000E+0,1.00000,0,  100.0,  9999.000, -9999.000,   1,1.0000
   463,'2 ',     2.025,     1.093,     1.093,    -1.093,1.00000,     0,     2.531, 0.00000E+0, 1.57330E-1, 0.00000E+0, 0.00000E+0,1.00000,0,  100.0,  9999.000, -9999.000,   1,1.0000
   463,'3 ',     2.700,     1.458,     1.458,    -1.458,1.00000,     0,     3.375, 0.00000E+0, 1.57330E-1, 0.00000E+0, 0.00000E+0,1.00000,0,  100.0,  9999.000, -9999.000,   1,1.0000
   463,'4 ',   -15.986,    -7.000,    -7.000,    -7.000,1.00000,     0,    34.595, 0.00000E+0, 1.57330E-1, 0.00000E+0, 0.00000E+0,1.00000,0,  100.0,  9999.000, -9999.000,   1,1.0000
   464,'1 ',    15.000,     8.909,    10.000,    -5.000,1.00000,     0,    21.000, 0.00000E+0, 1.60000E-1, 0.00000E+0, 0.00000E+0,1.00000,0,  100.0,    15.000,     0.000,   4,1.0000
   466,'1 ',    15.000,     3.842,    10.000,    -5.000,1.00000,     0,    22.500, 0.00000E+0, 1.60000E-1, 0.00000E+0, 0.00000E+0,1.00000,0,  100.0,    15.000,     0.000,   4,1.0000
   468,'1 ',    15.000,     0.799,    15.000,    -5.000,1.02000,     0,    22.000, 0.00000E+0, 1.70000E-1, 0.00000E+0, 0.00000E+0,1.00000,0,  100.0,    15.000,     0.000,   4,1.0000
   476,'1 ',     6.000,    -0.148,    20.700,   -16.560,1.05000,     0,    34.500, 0.00000E+0, 1.86500E-1, 0.00000E+0, 0.00000E+0,1.00000,1,  100.0,    25.000,     0.000,   1,1.0000
   478,'1 ',    10.000,    -2.360,    10.500,    -4.750,1.00000,     0,    15.750, 0.00000E+0, 2.10000E-1, 0.00000E+0, 0.00000E+0,1.00000,1,  100.0,    10.800,     0.000,   4,1.0000
   491,'1 ',    30.000,     7.606,    30.000,   -12.000,1.03000,     0,    45.400, 0.00000E+0, 2.04000E-1, 0.00000E+0, 0.00000E+0,1.00000,1,  100.0,    39.300,     0.000,   8,1.0000
   492,'2 ',    30.000,     7.606,    30.000,   -12.000,1.03000,     0,    45.400, 0.00000E+0, 2.04000E-1, 0.00000E+0, 0.00000E+0,1.00000,1,  100.0,    39.300,     0.000,   8,1.0000
   493,'1 ',    40.000,    14.604,    45.000, -9999.000,1.03000,     0,    84.200, 0.00000E+0, 1.92000E-1, 0.00000E+0, 0.00000E+0,1.00000,1,  100.0,    67.000,     0.000,   8,1.0000
   523,'1 ',    50.000,    -5.007,    90.000,   -60.000,1.00000,     0,   145.000, 0.00000E+0, 1.70000E-1, 0.00000E+0, 0.00000E+0,1.00000,1,  100.0,   130.000,    50.000,   1,1.0000
   525,'2 ',    70.000,     2.978,    90.000,   -60.000,1.00000,     0,   145.000, 0.00000E+0, 1.70000E-1, 0.00000E+0, 0.00000E+0,1.00000,1,  100.0,   130.000,    50.000,   1,1.0000
   600,'1 ',    38.000,     2.790,    24.840,   -12.000,1.04000,     0,    45.400, 0.00000E+0, 2.04000E-1, 0.00000E+0, 0.00000E+0,1.00000,1,  100.0,    39.300,     0.000,   4,1.0000
   650,'1 ',    26.000,     0.000,     7.570,    -5.380,1.00000,     0,    27.040, 0.00000E+0, 1.00000E+0, 0.00000E+0, 0.00000E+0,1.00000,0,  100.0,    26.000,     0.000,  11,1.0000
   651,'1 ',    28.000,     0.000,    14.580,   -10.500,1.00000,     0,    52.080, 0.00000E+0, 1.00000E+0, 0.00000E+0, 0.00000E+0,1.00000,0,  100.0,    50.000,     0.000,  11,1.0000
...